/*--------------------------------*- C++ -*----------------------------------*\
| =========                 |                                                 |
| \\      /  F ield         | OpenFOAM: The Open Source CFD Toolbox           |
|  \\    /   O peration     | Version:  2.1.1                                 |
|   \\  /    A nd           | Web:      www.OpenFOAM.org                      |
|    \\/     M anipulation  |                                                 |
\*---------------------------------------------------------------------------*/
FoamFile
{
  version     2.0;
  format      ascii;
  class       dictionary;
  location    "constant";
  object      sourcesProperties;
}
// * * * * * * * * * * * * * * * * * * * * * * * * * * * * * * * * * * * * * //

Tsource
{
    type            scalarExplicitSource;
    active          true;
    timeStart       0;
    duration        1000000;
    selectionMode   points;
    points
    (
        (0.550 0.600 0.000001)
    );

    scalarExplicitSourceCoeffs
    {
        volumeMode      absolute;
        injectionRate
        {
            T   1.0;
        }
    }
}

Tr01source
{
    type            scalarExplicitSource;
    active          true;
    timeStart       0;
    duration        1000000;
    selectionMode   points;
    points
    (
        (0.6000 	0.6000 	0.0125 )
    );

    scalarExplicitSourceCoeffs
    {
        volumeMode      absolute;
        injectionRate
        {
            Tr01   1.0;
        }
    }
}

Tr02source
{
    type            scalarExplicitSource;
    active          true;
    timeStart       0;
    duration        1000000;
    selectionMode   points;
    points
    (
        (0.6000 	0.6500 	0.0125 )
    );

    scalarExplicitSourceCoeffs
    {
        volumeMode      absolute;
        injectionRate
        {
            Tr02   1.0;
        }
    }
}

Tr03source
{
    type            scalarExplicitSource;
    active          true;
    timeStart       0;
    duration        1000000;
    selectionMode   points;
    points
    (
        (0.6000 	0.7000 	0.0125 )
    );

    scalarExplicitSourceCoeffs
    {
        volumeMode      absolute;
        injectionRate
        {
            Tr03   1.0;
        }
    }
}

Tr04source
{
    type            scalarExplicitSource;
    active          true;
    timeStart       0;
    duration        1000000;
    selectionMode   points;
    points
    (
        (0.7000 	0.6000 	0.0125 )
    );

    scalarExplicitSourceCoeffs
    {
        volumeMode      absolute;
        injectionRate
        {
            Tr04   1.0;
        }
    }
}

Tr05source
{
    type            scalarExplicitSource;
    active          true;
    timeStart       0;
    duration        1000000;
    selectionMode   points;
    points
    (
        (0.7000 	0.6500 	0.0125 )
    );

    scalarExplicitSourceCoeffs
    {
        volumeMode      absolute;
        injectionRate
        {
            Tr05   1.0;
        }
    }
}

Tr06source
{
    type            scalarExplicitSource;
    active          true;
    timeStart       0;
    duration        1000000;
    selectionMode   points;
    points
    (
        (0.7000 	0.7000 	0.0125 )
    );

    scalarExplicitSourceCoeffs
    {
        volumeMode      absolute;
        injectionRate
        {
            Tr06   1.0;
        }
    }
}

Tr07source
{
    type            scalarExplicitSource;
    active          true;
    timeStart       0;
    duration        1000000;
    selectionMode   points;
    points
    (
        (0.6000 	0.5500 	0.0125 )
    );

    scalarExplicitSourceCoeffs
    {
        volumeMode      absolute;
        injectionRate
        {
            Tr07   1.0;
        }
    }
}

Tr08source
{
    type            scalarExplicitSource;
    active          true;
    timeStart       0;
    duration        1000000;
    selectionMode   points;
    points
    (
        (0.6000 	0.5000 	0.0125 )
    );

    scalarExplicitSourceCoeffs
    {
        volumeMode      absolute;
        injectionRate
        {
            Tr08   1.0;
        }
    }
}

Tr09source
{
    type            scalarExplicitSource;
    active          true;
    timeStart       0;
    duration        1000000;
    selectionMode   points;
    points
    (
        (0.7000 	0.5500 	0.0125 )
    );

    scalarExplicitSourceCoeffs
    {
        volumeMode      absolute;
        injectionRate
        {
            Tr09   1.0;
        }
    }
}
// ************************************************************************* //
